tests/fuzzer/corpus_json/24_columnar_21_random_038.json
{
  "version": "1.0",
  "type": "input",
  "is_batch": false,
  "attributes": {
    "node": [
      "id",
      "u_rated"
    ],
    "source": [
      "id",
      "node",
      "status",
      "u_ref",
      "u_ref_angle",
      "sk",
      "rx_ratio",
      "z01_ratio"
    ],
    "line": [
      "id",
      "from_node",
      "to_node",
      "from_status",
      "to_status",
      "r1",
      "x1",
      "c1",
      "tan1",
      "r0",
      "x0",
      "c0",
      "tan0",
      "i_n"
    ],
    "sym_load": [
      "id",
      "node",
      "status",
      "type",
      "p_specified",
      "q_specified"
    ],
    "shunt": [
      "id",
      "node",
      "status",
      "g1",
      "b1",
      "g0",
      "b0"
    ]
  },
  "data": {
    "node": [
      [
        0,
        110000.0
      ],
      [
        1,
        110000.0
      ],
      [
        2,
        110000.0
      ],
      [
        3,
        110000.0
      ],
      [
        4,
        110000.0
      ],
      [
        5,
        110000.0
      ],
      [
        6,
        110000.0
      ],
      [
        7,
        110000.0
      ],
      [
        8,
        110000.0
      ],
      [
        9,
        110000.0
      ],
      [
        10,
        110000.0
      ],
      [
        11,
        110000.0
      ]
    ],
    "source": [
      [
        12,
        0,
        1,
        1.0448597641312578,
        0.0,
        429078082.0334924,
        0.03311573477982538,
        1.0
      ]
    ],
    "line": [
      [
        13,
        0,
        1,
        1,
        1,
        1.8746586905300915,
        3.0401819819597646,
        1.7009129070200167e-07,
        0.0,
        0.3,
        0.3,
        1e-09,
        0.0,
        351.12139228551274
      ],
      [
        14,
        1,
        2,
        1,
        1,
        1.3348165791520912,
        1.6473932423472575,
        7.265968271185355e-07,
        0.0,
        0.3,
        0.3,
        1e-09,
        0.0,
        478.32015470043285
      ],
      [
        15,
        2,
        3,
        1,
        1,
        4.813959440733472,
        2.914207071093458,
        2.2329304317795007e-07,
        0.0,
        0.3,
        0.3,
        1e-09,
        0.0,
        616.6697161162324
      ],
      [
        16,
        3,
        4,
        1,
        1,
        2.6402457985471472,
        0.7041471614178851,
        5.26846246767392e-07,
        0.0,
        0.3,
        0.3,
        1e-09,
        0.0,
        21.565238137472416
      ],
      [
        17,
        4,
        5,
        1,
        1,
        1.8720360741954567,
        2.6819336753191187,
        6.862225596861035e-07,
        0.0,
        0.3,
        0.3,
        1e-09,
        0.0,
        959.8197250308797
      ],
      [
        18,
        5,
        6,
        1,
        1,
        3.0733143726163226,
        0.12288906224195983,
        4.7553390340842525e-07,
        0.0,
        0.3,
        0.3,
        1e-09,
        0.0,
        257.6988819491285
      ],
      [
        19,
        6,
        7,
        1,
        1,
        3.7364308583796713,
        4.468153918430871,
        8.678004232970216e-08,
        0.0,
        0.3,
        0.3,
        1e-09,
        0.0,
        773.9133602423005
      ],
      [
        20,
        7,
        8,
        1,
        1,
        1.4661020664914215,
        0.9141504152098201,
        4.5353319428936086e-07,
        0.0,
        0.3,
        0.3,
        1e-09,
        0.0,
        424.5696982256273
      ],
      [
        21,
        8,
        9,
        1,
        1,
        1.4376349239389796,
        1.3193198732611449,
        4.334984888445319e-07,
        0.0,
        0.3,
        0.3,
        1e-09,
        0.0,
        692.579082200429
      ],
      [
        22,
        9,
        10,
        1,
        1,
        0.8196431286060496,
        1.8641276314326638,
        2.391994559987378e-07,
        0.0,
        0.3,
        0.3,
        1e-09,
        0.0,
        731.2990409282993
      ],
      [
        23,
        10,
        11,
        1,
        1,
        1.2402364352420336,
        3.698384463494224,
        2.877332379543862e-08,
        0.0,
        0.3,
        0.3,
        1e-09,
        0.0,
        857.1866294631112
      ]
    ],
    "sym_load": [
      [
        24,
        1,
        1,
        0,
        59201.293236094876,
        6851.304183412496
      ],
      [
        25,
        2,
        1,
        2,
        97289.16663731547,
        6587.484909031191
      ],
      [
        26,
        6,
        1,
        0,
        -55817.28312688399,
        -7084.00924734334
      ],
      [
        27,
        7,
        1,
        2,
        -87071.05046299999,
        1971.8299188770234
      ],
      [
        28,
        8,
        1,
        1,
        59808.591017622675,
        -7092.859987070786
      ],
      [
        29,
        9,
        1,
        2,
        74336.1052159676,
        7036.385325629755
      ]
    ],
    "shunt": [
      [
        30,
        0,
        1,
        3.40742265353315e-05,
        -4.955859832884477e-05,
        0.0001,
        0.0001
      ]
    ]
  }
}
